<?xml version="1.0" encoding="UTF-8"?>

<!-- generated on dom 16 mai 2021 00:50:55 by Eclipse SUMO netedit Version v1_8_0+1877-bcf2c151dc
<configuration xmlns:xsi="http://www.w3.org/2001/XMLSchema-instance" xsi:noNamespaceSchemaLocation="http://sumo.dlr.de/xsd/netconvertConfiguration.xsd">

    <input>
        <sumo-net-file value="/home/vitorhugo13/Desktop/Faculdade/4ANO_2SEMESTRE/MSSI/feup-mssi/networks/20km-network/20km.net.xml"/>
    </input>

    <output>
        <output-file value="/home/vitorhugo13/Desktop/Faculdade/4ANO_2SEMESTRE/MSSI/feup-mssi/networks/20km-network/20km.net.xml"/>
    </output>

    <processing>
        <geometry.min-radius.fix.railways value="false"/>
        <geometry.max-grade.fix value="false"/>
        <offset.disable-normalization value="true"/>
        <lefthand value="false"/>
    </processing>

    <junctions>
        <no-turnarounds value="true"/>
        <junctions.corner-detail value="5"/>
        <junctions.limit-turn-speed value="5.5"/>
        <rectangular-lane-cut value="false"/>
    </junctions>

    <pedestrian>
        <walkingareas value="false"/>
    </pedestrian>

    <report>
        <aggregate-warnings value="5"/>
    </report>

</configuration>
-->

<net version="1.9" junctionCornerDetail="5" limitTurnSpeed="5.50" xmlns:xsi="http://www.w3.org/2001/XMLSchema-instance" xsi:noNamespaceSchemaLocation="http://sumo.dlr.de/xsd/net_file.xsd">

    <location netOffset="0.00,0.00" convBoundary="0.00,0.00,20000.00,100.00" origBoundary="-10000000000.00,-10000000000.00,10000000000.00,10000000000.00" projParameter="!"/>

    <edge id=":gneJ100_0" function="internal">
        <lane id=":gneJ100_0_0" index="0" speed="13.89" length="0.10" shape="16000.00,98.40 16000.00,98.40"/>
    </edge>
    <edge id=":gneJ101_0" function="internal">
        <lane id=":gneJ101_0_0" index="0" speed="13.89" length="0.10" shape="17000.00,98.40 17000.00,98.40"/>
    </edge>
    <edge id=":gneJ102_0" function="internal">
        <lane id=":gneJ102_0_0" index="0" speed="13.89" length="0.10" shape="18000.00,98.40 18000.00,98.40"/>
    </edge>
    <edge id=":gneJ103_0" function="internal">
        <lane id=":gneJ103_0_0" index="0" speed="13.89" length="0.10" shape="19000.00,98.40 19000.00,98.40"/>
    </edge>
    <edge id=":gneJ65_0" function="internal">
        <lane id=":gneJ65_0_0" index="0" speed="13.89" length="0.10" shape="1000.00,-1.60 1000.00,-1.60"/>
    </edge>
    <edge id=":gneJ66_0" function="internal">
        <lane id=":gneJ66_0_0" index="0" speed="13.89" length="0.10" shape="2000.00,-1.60 2000.00,-1.60"/>
    </edge>
    <edge id=":gneJ67_0" function="internal">
        <lane id=":gneJ67_0_0" index="0" speed="13.89" length="0.10" shape="3000.00,-1.60 3000.00,-1.60"/>
    </edge>
    <edge id=":gneJ68_0" function="internal">
        <lane id=":gneJ68_0_0" index="0" speed="13.89" length="0.10" shape="4000.00,-1.60 4000.00,-1.60"/>
    </edge>
    <edge id=":gneJ69_0" function="internal">
        <lane id=":gneJ69_0_0" index="0" speed="13.89" length="0.10" shape="5000.00,-1.60 5000.00,-1.60"/>
    </edge>
    <edge id=":gneJ70_0" function="internal">
        <lane id=":gneJ70_0_0" index="0" speed="13.89" length="0.10" shape="6000.00,-1.60 6000.00,-1.60"/>
    </edge>
    <edge id=":gneJ71_0" function="internal">
        <lane id=":gneJ71_0_0" index="0" speed="13.89" length="0.10" shape="7000.00,-1.60 7000.00,-1.60"/>
    </edge>
    <edge id=":gneJ72_0" function="internal">
        <lane id=":gneJ72_0_0" index="0" speed="13.89" length="0.10" shape="8000.00,-1.60 8000.00,-1.60"/>
    </edge>
    <edge id=":gneJ73_0" function="internal">
        <lane id=":gneJ73_0_0" index="0" speed="13.89" length="0.10" shape="9000.00,-1.60 9000.00,-1.60"/>
    </edge>
    <edge id=":gneJ74_0" function="internal">
        <lane id=":gneJ74_0_0" index="0" speed="13.89" length="0.10" shape="10000.00,-1.60 10000.00,-1.60"/>
    </edge>
    <edge id=":gneJ75_0" function="internal">
        <lane id=":gneJ75_0_0" index="0" speed="13.89" length="0.10" shape="11000.00,-1.60 11000.00,-1.60"/>
    </edge>
    <edge id=":gneJ76_0" function="internal">
        <lane id=":gneJ76_0_0" index="0" speed="13.89" length="0.10" shape="12000.00,-1.60 12000.00,-1.60"/>
    </edge>
    <edge id=":gneJ77_0" function="internal">
        <lane id=":gneJ77_0_0" index="0" speed="13.89" length="0.10" shape="13000.00,-1.60 13000.00,-1.60"/>
    </edge>
    <edge id=":gneJ78_0" function="internal">
        <lane id=":gneJ78_0_0" index="0" speed="13.89" length="0.10" shape="14000.00,-1.60 14000.00,-1.60"/>
    </edge>
    <edge id=":gneJ79_0" function="internal">
        <lane id=":gneJ79_0_0" index="0" speed="13.89" length="0.10" shape="15000.00,-1.60 15000.00,-1.60"/>
    </edge>
    <edge id=":gneJ80_0" function="internal">
        <lane id=":gneJ80_0_0" index="0" speed="13.89" length="0.10" shape="16000.00,-1.60 16000.00,-1.60"/>
    </edge>
    <edge id=":gneJ81_0" function="internal">
        <lane id=":gneJ81_0_0" index="0" speed="13.89" length="0.10" shape="17000.00,-1.60 17000.00,-1.60"/>
    </edge>
    <edge id=":gneJ82_0" function="internal">
        <lane id=":gneJ82_0_0" index="0" speed="13.89" length="0.10" shape="18000.00,-1.60 18000.00,-1.60"/>
    </edge>
    <edge id=":gneJ83_0" function="internal">
        <lane id=":gneJ83_0_0" index="0" speed="13.89" length="0.10" shape="19000.00,-1.60 19000.00,-1.60"/>
    </edge>
    <edge id=":gneJ85_0" function="internal">
        <lane id=":gneJ85_0_0" index="0" speed="13.89" length="0.10" shape="1000.00,98.40 1000.00,98.40"/>
    </edge>
    <edge id=":gneJ86_0" function="internal">
        <lane id=":gneJ86_0_0" index="0" speed="13.89" length="0.10" shape="2000.00,98.40 2000.00,98.40"/>
    </edge>
    <edge id=":gneJ87_0" function="internal">
        <lane id=":gneJ87_0_0" index="0" speed="13.89" length="0.10" shape="3000.00,98.40 3000.00,98.40"/>
    </edge>
    <edge id=":gneJ88_0" function="internal">
        <lane id=":gneJ88_0_0" index="0" speed="13.89" length="0.10" shape="4000.00,98.40 4000.00,98.40"/>
    </edge>
    <edge id=":gneJ89_0" function="internal">
        <lane id=":gneJ89_0_0" index="0" speed="13.89" length="0.10" shape="5000.00,98.40 5000.00,98.40"/>
    </edge>
    <edge id=":gneJ90_0" function="internal">
        <lane id=":gneJ90_0_0" index="0" speed="13.89" length="0.10" shape="6000.00,98.40 6000.00,98.40"/>
    </edge>
    <edge id=":gneJ91_0" function="internal">
        <lane id=":gneJ91_0_0" index="0" speed="13.89" length="0.10" shape="7000.00,98.40 7000.00,98.40"/>
    </edge>
    <edge id=":gneJ92_0" function="internal">
        <lane id=":gneJ92_0_0" index="0" speed="13.89" length="0.10" shape="8000.00,98.40 8000.00,98.40"/>
    </edge>
    <edge id=":gneJ93_0" function="internal">
        <lane id=":gneJ93_0_0" index="0" speed="13.89" length="0.10" shape="9000.00,98.40 9000.00,98.40"/>
    </edge>
    <edge id=":gneJ94_0" function="internal">
        <lane id=":gneJ94_0_0" index="0" speed="13.89" length="0.10" shape="10000.00,98.40 10000.00,98.40"/>
    </edge>
    <edge id=":gneJ95_0" function="internal">
        <lane id=":gneJ95_0_0" index="0" speed="13.89" length="0.10" shape="11000.00,98.40 11000.00,98.40"/>
    </edge>
    <edge id=":gneJ96_0" function="internal">
        <lane id=":gneJ96_0_0" index="0" speed="13.89" length="0.10" shape="12000.00,98.40 12000.00,98.40"/>
    </edge>
    <edge id=":gneJ97_0" function="internal">
        <lane id=":gneJ97_0_0" index="0" speed="13.89" length="0.10" shape="13000.00,98.40 13000.00,98.40"/>
    </edge>
    <edge id=":gneJ98_0" function="internal">
        <lane id=":gneJ98_0_0" index="0" speed="13.89" length="0.10" shape="14000.00,98.40 14000.00,98.40"/>
    </edge>
    <edge id=":gneJ99_0" function="internal">
        <lane id=":gneJ99_0_0" index="0" speed="13.89" length="0.10" shape="15000.00,98.40 15000.00,98.40"/>
    </edge>

    <edge id="end_private" from="gneJ83" to="end_private" priority="-1">
        <lane id="end_private_0" index="0" speed="13.89" length="1000.00" shape="19000.00,-1.60 20000.00,-1.60"/>
    </edge>
    <edge id="end_public" from="gneJ103" to="end_public" priority="-1">
        <lane id="end_public_0" index="0" speed="13.89" length="1000.00" shape="19000.00,98.40 20000.00,98.40"/>
    </edge>
    <edge id="gneE58" from="gneJ65" to="gneJ66" priority="-1">
        <lane id="gneE58_0" index="0" speed="13.89" length="1000.00" shape="1000.00,-1.60 2000.00,-1.60"/>
    </edge>
    <edge id="gneE59" from="gneJ66" to="gneJ67" priority="-1">
        <lane id="gneE59_0" index="0" speed="13.89" length="1000.00" shape="2000.00,-1.60 3000.00,-1.60"/>
    </edge>
    <edge id="gneE60" from="gneJ67" to="gneJ68" priority="-1">
        <lane id="gneE60_0" index="0" speed="13.89" length="1000.00" shape="3000.00,-1.60 4000.00,-1.60"/>
    </edge>
    <edge id="gneE61" from="gneJ68" to="gneJ69" priority="-1">
        <lane id="gneE61_0" index="0" speed="13.89" length="1000.00" shape="4000.00,-1.60 5000.00,-1.60"/>
    </edge>
    <edge id="gneE62" from="gneJ69" to="gneJ70" priority="-1">
        <lane id="gneE62_0" index="0" speed="13.89" length="1000.00" shape="5000.00,-1.60 6000.00,-1.60"/>
    </edge>
    <edge id="gneE63" from="gneJ70" to="gneJ71" priority="-1">
        <lane id="gneE63_0" index="0" speed="13.89" length="1000.00" shape="6000.00,-1.60 7000.00,-1.60"/>
    </edge>
    <edge id="gneE64" from="gneJ71" to="gneJ72" priority="-1">
        <lane id="gneE64_0" index="0" speed="13.89" length="1000.00" shape="7000.00,-1.60 8000.00,-1.60"/>
    </edge>
    <edge id="gneE65" from="gneJ72" to="gneJ73" priority="-1">
        <lane id="gneE65_0" index="0" speed="13.89" length="1000.00" shape="8000.00,-1.60 9000.00,-1.60"/>
    </edge>
    <edge id="gneE66" from="gneJ73" to="gneJ74" priority="-1">
        <lane id="gneE66_0" index="0" speed="13.89" length="1000.00" shape="9000.00,-1.60 10000.00,-1.60"/>
    </edge>
    <edge id="gneE67" from="gneJ74" to="gneJ75" priority="-1">
        <lane id="gneE67_0" index="0" speed="13.89" length="1000.00" shape="10000.00,-1.60 11000.00,-1.60"/>
    </edge>
    <edge id="gneE68" from="gneJ75" to="gneJ76" priority="-1">
        <lane id="gneE68_0" index="0" speed="13.89" length="1000.00" shape="11000.00,-1.60 12000.00,-1.60"/>
    </edge>
    <edge id="gneE69" from="gneJ76" to="gneJ77" priority="-1">
        <lane id="gneE69_0" index="0" speed="13.89" length="1000.00" shape="12000.00,-1.60 13000.00,-1.60"/>
    </edge>
    <edge id="gneE70" from="gneJ77" to="gneJ78" priority="-1">
        <lane id="gneE70_0" index="0" speed="13.89" length="1000.00" shape="13000.00,-1.60 14000.00,-1.60"/>
    </edge>
    <edge id="gneE71" from="gneJ78" to="gneJ79" priority="-1">
        <lane id="gneE71_0" index="0" speed="13.89" length="1000.00" shape="14000.00,-1.60 15000.00,-1.60"/>
    </edge>
    <edge id="gneE72" from="gneJ79" to="gneJ80" priority="-1">
        <lane id="gneE72_0" index="0" speed="13.89" length="1000.00" shape="15000.00,-1.60 16000.00,-1.60"/>
    </edge>
    <edge id="gneE73" from="gneJ80" to="gneJ81" priority="-1">
        <lane id="gneE73_0" index="0" speed="13.89" length="1000.00" shape="16000.00,-1.60 17000.00,-1.60"/>
    </edge>
    <edge id="gneE74" from="gneJ81" to="gneJ82" priority="-1">
        <lane id="gneE74_0" index="0" speed="13.89" length="1000.00" shape="17000.00,-1.60 18000.00,-1.60"/>
    </edge>
    <edge id="gneE75" from="gneJ82" to="gneJ83" priority="-1">
        <lane id="gneE75_0" index="0" speed="13.89" length="1000.00" shape="18000.00,-1.60 19000.00,-1.60"/>
    </edge>
    <edge id="gneE77" from="gneJ85" to="gneJ86" priority="-1">
        <lane id="gneE77_0" index="0" speed="13.89" length="1000.00" shape="1000.00,98.40 2000.00,98.40"/>
    </edge>
    <edge id="gneE78" from="gneJ86" to="gneJ87" priority="-1">
        <lane id="gneE78_0" index="0" speed="13.89" length="1000.00" shape="2000.00,98.40 3000.00,98.40"/>
    </edge>
    <edge id="gneE79" from="gneJ87" to="gneJ88" priority="-1">
        <lane id="gneE79_0" index="0" speed="13.89" length="1000.00" shape="3000.00,98.40 4000.00,98.40"/>
    </edge>
    <edge id="gneE80" from="gneJ88" to="gneJ89" priority="-1">
        <lane id="gneE80_0" index="0" speed="13.89" length="1000.00" shape="4000.00,98.40 5000.00,98.40"/>
    </edge>
    <edge id="gneE81" from="gneJ89" to="gneJ90" priority="-1">
        <lane id="gneE81_0" index="0" speed="13.89" length="1000.00" shape="5000.00,98.40 6000.00,98.40"/>
    </edge>
    <edge id="gneE82" from="gneJ90" to="gneJ91" priority="-1">
        <lane id="gneE82_0" index="0" speed="13.89" length="1000.00" shape="6000.00,98.40 7000.00,98.40"/>
    </edge>
    <edge id="gneE83" from="gneJ91" to="gneJ92" priority="-1">
        <lane id="gneE83_0" index="0" speed="13.89" length="1000.00" shape="7000.00,98.40 8000.00,98.40"/>
    </edge>
    <edge id="gneE84" from="gneJ92" to="gneJ93" priority="-1">
        <lane id="gneE84_0" index="0" speed="13.89" length="1000.00" shape="8000.00,98.40 9000.00,98.40"/>
    </edge>
    <edge id="gneE85" from="gneJ93" to="gneJ94" priority="-1">
        <lane id="gneE85_0" index="0" speed="13.89" length="1000.00" shape="9000.00,98.40 10000.00,98.40"/>
    </edge>
    <edge id="gneE86" from="gneJ94" to="gneJ95" priority="-1">
        <lane id="gneE86_0" index="0" speed="13.89" length="1000.00" shape="10000.00,98.40 11000.00,98.40"/>
    </edge>
    <edge id="gneE87" from="gneJ95" to="gneJ96" priority="-1">
        <lane id="gneE87_0" index="0" speed="13.89" length="1000.00" shape="11000.00,98.40 12000.00,98.40"/>
    </edge>
    <edge id="gneE88" from="gneJ96" to="gneJ97" priority="-1">
        <lane id="gneE88_0" index="0" speed="13.89" length="1000.00" shape="12000.00,98.40 13000.00,98.40"/>
    </edge>
    <edge id="gneE89" from="gneJ97" to="gneJ98" priority="-1">
        <lane id="gneE89_0" index="0" speed="13.89" length="1000.00" shape="13000.00,98.40 14000.00,98.40"/>
    </edge>
    <edge id="gneE90" from="gneJ98" to="gneJ99" priority="-1">
        <lane id="gneE90_0" index="0" speed="13.89" length="1000.00" shape="14000.00,98.40 15000.00,98.40"/>
    </edge>
    <edge id="gneE91" from="gneJ99" to="gneJ100" priority="-1">
        <lane id="gneE91_0" index="0" speed="13.89" length="1000.00" shape="15000.00,98.40 16000.00,98.40"/>
    </edge>
    <edge id="gneE92" from="gneJ100" to="gneJ101" priority="-1">
        <lane id="gneE92_0" index="0" speed="13.89" length="1000.00" shape="16000.00,98.40 17000.00,98.40"/>
    </edge>
    <edge id="gneE93" from="gneJ101" to="gneJ102" priority="-1">
        <lane id="gneE93_0" index="0" speed="13.89" length="1000.00" shape="17000.00,98.40 18000.00,98.40"/>
    </edge>
    <edge id="gneE94" from="gneJ102" to="gneJ103" priority="-1">
        <lane id="gneE94_0" index="0" speed="13.89" length="1000.00" shape="18000.00,98.40 19000.00,98.40"/>
    </edge>
    <edge id="start_private" from="start_private" to="gneJ65" priority="-1">
        <lane id="start_private_0" index="0" speed="13.89" length="1000.00" shape="0.00,-1.60 1000.00,-1.60"/>
    </edge>
    <edge id="start_public" from="start_public" to="gneJ85" priority="-1">
        <lane id="start_public_0" index="0" speed="13.89" length="1000.00" shape="0.00,98.40 1000.00,98.40"/>
    </edge>

    <junction id="end_private" type="dead_end" x="20000.00" y="0.00" incLanes="end_private_0" intLanes="" shape="20000.00,-3.20 20000.00,0.00"/>
    <junction id="end_public" type="dead_end" x="20000.00" y="100.00" incLanes="end_public_0" intLanes="" shape="20000.00,96.80 20000.00,100.00"/>
    <junction id="gneJ100" type="priority" x="16000.00" y="100.00" incLanes="gneE91_0" intLanes=":gneJ100_0_0" shape="16000.00,100.00 16000.00,96.80 16000.00,100.00">
        <request index="0" response="0" foes="0" cont="0"/>
    </junction>
    <junction id="gneJ101" type="priority" x="17000.00" y="100.00" incLanes="gneE92_0" intLanes=":gneJ101_0_0" shape="17000.00,100.00 17000.00,96.80 17000.00,100.00">
        <request index="0" response="0" foes="0" cont="0"/>
    </junction>
    <junction id="gneJ102" type="priority" x="18000.00" y="100.00" incLanes="gneE93_0" intLanes=":gneJ102_0_0" shape="18000.00,100.00 18000.00,96.80 18000.00,100.00">
        <request index="0" response="0" foes="0" cont="0"/>
    </junction>
    <junction id="gneJ103" type="priority" x="19000.00" y="100.00" incLanes="gneE94_0" intLanes=":gneJ103_0_0" shape="19000.00,100.00 19000.00,96.80 19000.00,100.00">
        <request index="0" response="0" foes="0" cont="0"/>
    </junction>
    <junction id="gneJ65" type="priority" x="1000.00" y="0.00" incLanes="start_private_0" intLanes=":gneJ65_0_0" shape="1000.00,0.00 1000.00,-3.20 1000.00,0.00">
        <request index="0" response="0" foes="0" cont="0"/>
    </junction>
    <junction id="gneJ66" type="priority" x="2000.00" y="0.00" incLanes="gneE58_0" intLanes=":gneJ66_0_0" shape="2000.00,0.00 2000.00,-3.20 2000.00,0.00">
        <request index="0" response="0" foes="0" cont="0"/>
    </junction>
    <junction id="gneJ67" type="priority" x="3000.00" y="0.00" incLanes="gneE59_0" intLanes=":gneJ67_0_0" shape="3000.00,0.00 3000.00,-3.20 3000.00,0.00">
        <request index="0" response="0" foes="0" cont="0"/>
    </junction>
    <junction id="gneJ68" type="priority" x="4000.00" y="0.00" incLanes="gneE60_0" intLanes=":gneJ68_0_0" shape="4000.00,0.00 4000.00,-3.20 4000.00,0.00">
        <request index="0" response="0" foes="0" cont="0"/>
    </junction>
    <junction id="gneJ69" type="priority" x="5000.00" y="0.00" incLanes="gneE61_0" intLanes=":gneJ69_0_0" shape="5000.00,0.00 5000.00,-3.20 5000.00,0.00">
        <request index="0" response="0" foes="0" cont="0"/>
    </junction>
    <junction id="gneJ70" type="priority" x="6000.00" y="0.00" incLanes="gneE62_0" intLanes=":gneJ70_0_0" shape="6000.00,0.00 6000.00,-3.20 6000.00,0.00">
        <request index="0" response="0" foes="0" cont="0"/>
    </junction>
    <junction id="gneJ71" type="priority" x="7000.00" y="0.00" incLanes="gneE63_0" intLanes=":gneJ71_0_0" shape="7000.00,0.00 7000.00,-3.20 7000.00,0.00">
        <request index="0" response="0" foes="0" cont="0"/>
    </junction>
    <junction id="gneJ72" type="priority" x="8000.00" y="0.00" incLanes="gneE64_0" intLanes=":gneJ72_0_0" shape="8000.00,0.00 8000.00,-3.20 8000.00,0.00">
        <request index="0" response="0" foes="0" cont="0"/>
    </junction>
    <junction id="gneJ73" type="priority" x="9000.00" y="0.00" incLanes="gneE65_0" intLanes=":gneJ73_0_0" shape="9000.00,0.00 9000.00,-3.20 9000.00,0.00">
        <request index="0" response="0" foes="0" cont="0"/>
    </junction>
    <junction id="gneJ74" type="priority" x="10000.00" y="0.00" incLanes="gneE66_0" intLanes=":gneJ74_0_0" shape="10000.00,0.00 10000.00,-3.20 10000.00,0.00">
        <request index="0" response="0" foes="0" cont="0"/>
    </junction>
    <junction id="gneJ75" type="priority" x="11000.00" y="0.00" incLanes="gneE67_0" intLanes=":gneJ75_0_0" shape="11000.00,0.00 11000.00,-3.20 11000.00,0.00">
        <request index="0" response="0" foes="0" cont="0"/>
    </junction>
    <junction id="gneJ76" type="priority" x="12000.00" y="0.00" incLanes="gneE68_0" intLanes=":gneJ76_0_0" shape="12000.00,0.00 12000.00,-3.20 12000.00,0.00">
        <request index="0" response="0" foes="0" cont="0"/>
    </junction>
    <junction id="gneJ77" type="priority" x="13000.00" y="0.00" incLanes="gneE69_0" intLanes=":gneJ77_0_0" shape="13000.00,0.00 13000.00,-3.20 13000.00,0.00">
        <request index="0" response="0" foes="0" cont="0"/>
    </junction>
    <junction id="gneJ78" type="priority" x="14000.00" y="0.00" incLanes="gneE70_0" intLanes=":gneJ78_0_0" shape="14000.00,0.00 14000.00,-3.20 14000.00,0.00">
        <request index="0" response="0" foes="0" cont="0"/>
    </junction>
    <junction id="gneJ79" type="priority" x="15000.00" y="0.00" incLanes="gneE71_0" intLanes=":gneJ79_0_0" shape="15000.00,0.00 15000.00,-3.20 15000.00,0.00">
        <request index="0" response="0" foes="0" cont="0"/>
    </junction>
    <junction id="gneJ80" type="priority" x="16000.00" y="0.00" incLanes="gneE72_0" intLanes=":gneJ80_0_0" shape="16000.00,0.00 16000.00,-3.20 16000.00,0.00">
        <request index="0" response="0" foes="0" cont="0"/>
    </junction>
    <junction id="gneJ81" type="priority" x="17000.00" y="0.00" incLanes="gneE73_0" intLanes=":gneJ81_0_0" shape="17000.00,0.00 17000.00,-3.20 17000.00,0.00">
        <request index="0" response="0" foes="0" cont="0"/>
    </junction>
    <junction id="gneJ82" type="priority" x="18000.00" y="0.00" incLanes="gneE74_0" intLanes=":gneJ82_0_0" shape="18000.00,0.00 18000.00,-3.20 18000.00,0.00">
        <request index="0" response="0" foes="0" cont="0"/>
    </junction>
    <junction id="gneJ83" type="priority" x="19000.00" y="0.00" incLanes="gneE75_0" intLanes=":gneJ83_0_0" shape="19000.00,0.00 19000.00,-3.20 19000.00,0.00">
        <request index="0" response="0" foes="0" cont="0"/>
    </junction>
    <junction id="gneJ85" type="priority" x="1000.00" y="100.00" incLanes="start_public_0" intLanes=":gneJ85_0_0" shape="1000.00,100.00 1000.00,96.80 1000.00,100.00">
        <request index="0" response="0" foes="0" cont="0"/>
    </junction>
    <junction id="gneJ86" type="priority" x="2000.00" y="100.00" incLanes="gneE77_0" intLanes=":gneJ86_0_0" shape="2000.00,100.00 2000.00,96.80 2000.00,100.00">
        <request index="0" response="0" foes="0" cont="0"/>
    </junction>
    <junction id="gneJ87" type="priority" x="3000.00" y="100.00" incLanes="gneE78_0" intLanes=":gneJ87_0_0" shape="3000.00,100.00 3000.00,96.80 3000.00,100.00">
        <request index="0" response="0" foes="0" cont="0"/>
    </junction>
    <junction id="gneJ88" type="priority" x="4000.00" y="100.00" incLanes="gneE79_0" intLanes=":gneJ88_0_0" shape="4000.00,100.00 4000.00,96.80 4000.00,100.00">
        <request index="0" response="0" foes="0" cont="0"/>
    </junction>
    <junction id="gneJ89" type="priority" x="5000.00" y="100.00" incLanes="gneE80_0" intLanes=":gneJ89_0_0" shape="5000.00,100.00 5000.00,96.80 5000.00,100.00">
        <request index="0" response="0" foes="0" cont="0"/>
    </junction>
    <junction id="gneJ90" type="priority" x="6000.00" y="100.00" incLanes="gneE81_0" intLanes=":gneJ90_0_0" shape="6000.00,100.00 6000.00,96.80 6000.00,100.00">
        <request index="0" response="0" foes="0" cont="0"/>
    </junction>
    <junction id="gneJ91" type="priority" x="7000.00" y="100.00" incLanes="gneE82_0" intLanes=":gneJ91_0_0" shape="7000.00,100.00 7000.00,96.80 7000.00,100.00">
        <request index="0" response="0" foes="0" cont="0"/>
    </junction>
    <junction id="gneJ92" type="priority" x="8000.00" y="100.00" incLanes="gneE83_0" intLanes=":gneJ92_0_0" shape="8000.00,100.00 8000.00,96.80 8000.00,100.00">
        <request index="0" response="0" foes="0" cont="0"/>
    </junction>
    <junction id="gneJ93" type="priority" x="9000.00" y="100.00" incLanes="gneE84_0" intLanes=":gneJ93_0_0" shape="9000.00,100.00 9000.00,96.80 9000.00,100.00">
        <request index="0" response="0" foes="0" cont="0"/>
    </junction>
    <junction id="gneJ94" type="priority" x="10000.00" y="100.00" incLanes="gneE85_0" intLanes=":gneJ94_0_0" shape="10000.00,100.00 10000.00,96.80 10000.00,100.00">
        <request index="0" response="0" foes="0" cont="0"/>
    </junction>
    <junction id="gneJ95" type="priority" x="11000.00" y="100.00" incLanes="gneE86_0" intLanes=":gneJ95_0_0" shape="11000.00,100.00 11000.00,96.80 11000.00,100.00">
        <request index="0" response="0" foes="0" cont="0"/>
    </junction>
    <junction id="gneJ96" type="priority" x="12000.00" y="100.00" incLanes="gneE87_0" intLanes=":gneJ96_0_0" shape="12000.00,100.00 12000.00,96.80 12000.00,100.00">
        <request index="0" response="0" foes="0" cont="0"/>
    </junction>
    <junction id="gneJ97" type="priority" x="13000.00" y="100.00" incLanes="gneE88_0" intLanes=":gneJ97_0_0" shape="13000.00,100.00 13000.00,96.80 13000.00,100.00">
        <request index="0" response="0" foes="0" cont="0"/>
    </junction>
    <junction id="gneJ98" type="priority" x="14000.00" y="100.00" incLanes="gneE89_0" intLanes=":gneJ98_0_0" shape="14000.00,100.00 14000.00,96.80 14000.00,100.00">
        <request index="0" response="0" foes="0" cont="0"/>
    </junction>
    <junction id="gneJ99" type="priority" x="15000.00" y="100.00" incLanes="gneE90_0" intLanes=":gneJ99_0_0" shape="15000.00,100.00 15000.00,96.80 15000.00,100.00">
        <request index="0" response="0" foes="0" cont="0"/>
    </junction>
    <junction id="start_private" type="dead_end" x="0.00" y="0.00" incLanes="" intLanes="" shape="0.00,0.00 0.00,-3.20"/>
    <junction id="start_public" type="dead_end" x="0.00" y="100.00" incLanes="" intLanes="" shape="0.00,100.00 0.00,96.80"/>

    <connection from="gneE58" to="gneE59" fromLane="0" toLane="0" via=":gneJ66_0_0" dir="s" state="M"/>
    <connection from="gneE59" to="gneE60" fromLane="0" toLane="0" via=":gneJ67_0_0" dir="s" state="M"/>
    <connection from="gneE60" to="gneE61" fromLane="0" toLane="0" via=":gneJ68_0_0" dir="s" state="M"/>
    <connection from="gneE61" to="gneE62" fromLane="0" toLane="0" via=":gneJ69_0_0" dir="s" state="M"/>
    <connection from="gneE62" to="gneE63" fromLane="0" toLane="0" via=":gneJ70_0_0" dir="s" state="M"/>
    <connection from="gneE63" to="gneE64" fromLane="0" toLane="0" via=":gneJ71_0_0" dir="s" state="M"/>
    <connection from="gneE64" to="gneE65" fromLane="0" toLane="0" via=":gneJ72_0_0" dir="s" state="M"/>
    <connection from="gneE65" to="gneE66" fromLane="0" toLane="0" via=":gneJ73_0_0" dir="s" state="M"/>
    <connection from="gneE66" to="gneE67" fromLane="0" toLane="0" via=":gneJ74_0_0" dir="s" state="M"/>
    <connection from="gneE67" to="gneE68" fromLane="0" toLane="0" via=":gneJ75_0_0" dir="s" state="M"/>
    <connection from="gneE68" to="gneE69" fromLane="0" toLane="0" via=":gneJ76_0_0" dir="s" state="M"/>
    <connection from="gneE69" to="gneE70" fromLane="0" toLane="0" via=":gneJ77_0_0" dir="s" state="M"/>
    <connection from="gneE70" to="gneE71" fromLane="0" toLane="0" via=":gneJ78_0_0" dir="s" state="M"/>
    <connection from="gneE71" to="gneE72" fromLane="0" toLane="0" via=":gneJ79_0_0" dir="s" state="M"/>
    <connection from="gneE72" to="gneE73" fromLane="0" toLane="0" via=":gneJ80_0_0" dir="s" state="M"/>
    <connection from="gneE73" to="gneE74" fromLane="0" toLane="0" via=":gneJ81_0_0" dir="s" state="M"/>
    <connection from="gneE74" to="gneE75" fromLane="0" toLane="0" via=":gneJ82_0_0" dir="s" state="M"/>
    <connection from="gneE75" to="end_private" fromLane="0" toLane="0" via=":gneJ83_0_0" dir="s" state="M"/>
    <connection from="gneE77" to="gneE78" fromLane="0" toLane="0" via=":gneJ86_0_0" dir="s" state="M"/>
    <connection from="gneE78" to="gneE79" fromLane="0" toLane="0" via=":gneJ87_0_0" dir="s" state="M"/>
    <connection from="gneE79" to="gneE80" fromLane="0" toLane="0" via=":gneJ88_0_0" dir="s" state="M"/>
    <connection from="gneE80" to="gneE81" fromLane="0" toLane="0" via=":gneJ89_0_0" dir="s" state="M"/>
    <connection from="gneE81" to="gneE82" fromLane="0" toLane="0" via=":gneJ90_0_0" dir="s" state="M"/>
    <connection from="gneE82" to="gneE83" fromLane="0" toLane="0" via=":gneJ91_0_0" dir="s" state="M"/>
    <connection from="gneE83" to="gneE84" fromLane="0" toLane="0" via=":gneJ92_0_0" dir="s" state="M"/>
    <connection from="gneE84" to="gneE85" fromLane="0" toLane="0" via=":gneJ93_0_0" dir="s" state="M"/>
    <connection from="gneE85" to="gneE86" fromLane="0" toLane="0" via=":gneJ94_0_0" dir="s" state="M"/>
    <connection from="gneE86" to="gneE87" fromLane="0" toLane="0" via=":gneJ95_0_0" dir="s" state="M"/>
    <connection from="gneE87" to="gneE88" fromLane="0" toLane="0" via=":gneJ96_0_0" dir="s" state="M"/>
    <connection from="gneE88" to="gneE89" fromLane="0" toLane="0" via=":gneJ97_0_0" dir="s" state="M"/>
    <connection from="gneE89" to="gneE90" fromLane="0" toLane="0" via=":gneJ98_0_0" dir="s" state="M"/>
    <connection from="gneE90" to="gneE91" fromLane="0" toLane="0" via=":gneJ99_0_0" dir="s" state="M"/>
    <connection from="gneE91" to="gneE92" fromLane="0" toLane="0" via=":gneJ100_0_0" dir="s" state="M"/>
    <connection from="gneE92" to="gneE93" fromLane="0" toLane="0" via=":gneJ101_0_0" dir="s" state="M"/>
    <connection from="gneE93" to="gneE94" fromLane="0" toLane="0" via=":gneJ102_0_0" dir="s" state="M"/>
    <connection from="gneE94" to="end_public" fromLane="0" toLane="0" via=":gneJ103_0_0" dir="s" state="M"/>
    <connection from="start_private" to="gneE58" fromLane="0" toLane="0" via=":gneJ65_0_0" dir="s" state="M"/>
    <connection from="start_public" to="gneE77" fromLane="0" toLane="0" via=":gneJ85_0_0" dir="s" state="M"/>

    <connection from=":gneJ100_0" to="gneE92" fromLane="0" toLane="0" dir="s" state="M"/>
    <connection from=":gneJ101_0" to="gneE93" fromLane="0" toLane="0" dir="s" state="M"/>
    <connection from=":gneJ102_0" to="gneE94" fromLane="0" toLane="0" dir="s" state="M"/>
    <connection from=":gneJ103_0" to="end_public" fromLane="0" toLane="0" dir="s" state="M"/>
    <connection from=":gneJ65_0" to="gneE58" fromLane="0" toLane="0" dir="s" state="M"/>
    <connection from=":gneJ66_0" to="gneE59" fromLane="0" toLane="0" dir="s" state="M"/>
    <connection from=":gneJ67_0" to="gneE60" fromLane="0" toLane="0" dir="s" state="M"/>
    <connection from=":gneJ68_0" to="gneE61" fromLane="0" toLane="0" dir="s" state="M"/>
    <connection from=":gneJ69_0" to="gneE62" fromLane="0" toLane="0" dir="s" state="M"/>
    <connection from=":gneJ70_0" to="gneE63" fromLane="0" toLane="0" dir="s" state="M"/>
    <connection from=":gneJ71_0" to="gneE64" fromLane="0" toLane="0" dir="s" state="M"/>
    <connection from=":gneJ72_0" to="gneE65" fromLane="0" toLane="0" dir="s" state="M"/>
    <connection from=":gneJ73_0" to="gneE66" fromLane="0" toLane="0" dir="s" state="M"/>